26
	Energy:      19.4861790
C         -6.05110       -0.35556        0.36622
C         -4.61314        0.09211        0.42434
C         -3.56834       -0.74828        0.28104
C         -3.77016       -2.22160        0.00976
C         -5.17672       -2.71688        0.34561
H         -3.05289       -2.81350        0.59058
H         -3.55741       -2.40948       -1.05023
C         -6.23467       -1.76565       -0.19632
H         -5.28518       -2.80338        1.43446
H         -5.32297       -3.72058       -0.06922
H         -7.23536       -2.13559        0.05505
H         -6.17184       -1.73660       -1.29136
H         -6.64296        0.34073       -0.23817
H         -6.45994       -0.31765        1.38387
C         -2.13069       -0.31560        0.37663
H         -2.01855        0.67334        0.83063
H         -1.67584       -0.29609       -0.61866
H         -1.56193       -1.01094        1.00271
O         -4.44526        1.44191        0.68769
S         -4.22457        2.51127       -0.53612
O         -5.39187        2.52510       -1.39427
O         -2.88337        2.37686       -1.07000
C         -4.26003        3.97623        0.46576
H         -5.28926        4.17189        0.77140
H         -3.87995        4.80713       -0.13245
H         -3.61880        3.82752        1.33689
